# generated using pymatgen
data_Ca2FeS3Br
_symmetry_space_group_name_H-M   Pca2_1
_cell_length_a   6.40608638
_cell_length_b   14.95448976
_cell_length_c   6.63644448
_cell_angle_alpha   90.00000000
_cell_angle_beta   90.00000000
_cell_angle_gamma   90.00000000
_symmetry_Int_Tables_number   29
_chemical_formula_structural   Ca2FeS3Br
_chemical_formula_sum   'Ca8 Fe4 S12 Br4'
_cell_volume   635.76974235
_cell_formula_units_Z   4
loop_
 _symmetry_equiv_pos_site_id
 _symmetry_equiv_pos_as_xyz
  1  'x, y, z'
  2  '-x, -y, z+1/2'
  3  '-x+1/2, y, z+1/2'
  4  'x+1/2, -y, z'
loop_
 _atom_site_type_symbol
 _atom_site_label
 _atom_site_symmetry_multiplicity
 _atom_site_fract_x
 _atom_site_fract_y
 _atom_site_fract_z
 _atom_site_occupancy
  Ca  Ca0  4  0.00126611  0.12817078  0.42665037  1
  Ca  Ca1  4  0.00294081  0.60700456  0.07664474  1
  Fe  Fe2  4  0.01836583  0.28508386  0.01237105  1
  S  S3  4  0.08913024  0.43133687  0.98143072  1
  S  S4  4  0.20152801  0.22790652  0.71224832  1
  S  S5  4  0.20566132  0.71855098  0.80001047  1
  Br  Br6  4  0.08449933  0.93918235  0.51912593  1
