# generated using pymatgen
data_Ca2FeClO3
_symmetry_space_group_name_H-M   P-42_1m
_cell_length_a   5.42868909
_cell_length_b   5.42868909
_cell_length_c   13.40576885
_cell_angle_alpha   90.00000000
_cell_angle_beta   90.00000000
_cell_angle_gamma   90.00000000
_symmetry_Int_Tables_number   113
_chemical_formula_structural   Ca2FeClO3
_chemical_formula_sum   'Ca8 Fe4 Cl4 O12'
_cell_volume   395.07692650
_cell_formula_units_Z   4
loop_
 _symmetry_equiv_pos_site_id
 _symmetry_equiv_pos_as_xyz
  1  'x, y, z'
  2  'y, -x, -z'
  3  '-x, -y, z'
  4  '-y, x, -z'
  5  'x+1/2, -y+1/2, -z'
  6  'y+1/2, x+1/2, z'
  7  '-x+1/2, y+1/2, -z'
  8  '-y+1/2, -x+1/2, z'
loop_
 _atom_site_type_symbol
 _atom_site_label
 _atom_site_symmetry_multiplicity
 _atom_site_fract_x
 _atom_site_fract_y
 _atom_site_fract_z
 _atom_site_occupancy
  Ca  Ca0  4  0.23173435  0.73173435  0.90577295  1
  Ca  Ca1  4  0.24963580  0.74963580  0.65852862  1
  Fe  Fe2  4  0.24901102  0.25098898  0.79217089  1
  Cl  Cl3  4  0.24177976  0.74177976  0.42424048  1
  O  O4  4  0.00000000  0.00000000  0.23199581  1
  O  O5  4  0.21123541  0.28876459  0.93179003  1
  O  O6  2  0.00000000  0.50000000  0.22158091  1
  O  O7  2  0.00000000  0.50000000  0.75765561  1
