# generated using pymatgen
data_Ca2FeBrO3
_symmetry_space_group_name_H-M   P-42_1m
_cell_length_a   5.43369426
_cell_length_b   5.43369426
_cell_length_c   14.59296139
_cell_angle_alpha   90.00000000
_cell_angle_beta   90.00000000
_cell_angle_gamma   90.00000000
_symmetry_Int_Tables_number   113
_chemical_formula_structural   Ca2FeBrO3
_chemical_formula_sum   'Ca8 Fe4 Br4 O12'
_cell_volume   430.85767148
_cell_formula_units_Z   4
loop_
 _symmetry_equiv_pos_site_id
 _symmetry_equiv_pos_as_xyz
  1  'x, y, z'
  2  'y, -x, -z'
  3  '-x, -y, z'
  4  '-y, x, -z'
  5  'x+1/2, -y+1/2, -z'
  6  'y+1/2, x+1/2, z'
  7  '-x+1/2, y+1/2, -z'
  8  '-y+1/2, -x+1/2, z'
loop_
 _atom_site_type_symbol
 _atom_site_label
 _atom_site_symmetry_multiplicity
 _atom_site_fract_x
 _atom_site_fract_y
 _atom_site_fract_z
 _atom_site_occupancy
  Ca  Ca0  4  0.23055930  0.73055930  0.41372840  1
  Ca  Ca1  4  0.24877596  0.74877596  0.18743428  1
  Fe  Fe2  4  0.24863989  0.25136011  0.30862565  1
  Br  Br3  4  0.24675668  0.74675668  0.90564709  1
  O  O4  4  0.00000000  0.00000000  0.28695011  1
  O  O5  4  0.21188295  0.28811705  0.43719822  1
  O  O6  2  0.00000000  0.50000000  0.27823804  1
  O  O7  2  0.00000000  0.50000000  0.70463014  1
