# generated using pymatgen
data_Eu2FeNO3
_symmetry_space_group_name_H-M   Pcc2
_cell_length_a   5.37652653
_cell_length_b   5.37818618
_cell_length_c   12.16847029
_cell_angle_alpha   90.00000000
_cell_angle_beta   90.00000000
_cell_angle_gamma   90.00000000
_symmetry_Int_Tables_number   27
_chemical_formula_structural   Eu2FeNO3
_chemical_formula_sum   'Eu8 Fe4 N4 O12'
_cell_volume   351.86300817
_cell_formula_units_Z   4
loop_
 _symmetry_equiv_pos_site_id
 _symmetry_equiv_pos_as_xyz
  1  'x, y, z'
  2  '-x, -y, z'
  3  '-x, y, z+1/2'
  4  'x, -y, z+1/2'
loop_
 _atom_site_type_symbol
 _atom_site_label
 _atom_site_symmetry_multiplicity
 _atom_site_fract_x
 _atom_site_fract_y
 _atom_site_fract_z
 _atom_site_occupancy
  Eu  Eu0  4  0.23194114  0.23192828  0.11476568  1
  Eu  Eu1  4  0.25899990  0.25897253  0.40343841  1
  Fe  Fe2  4  0.25585278  0.25589224  0.76982666  1
  N  N3  4  0.29201900  0.29246534  0.92935798  1
  O  O4  4  0.19653758  0.19625178  0.57805406  1
  O  O5  2  0.00000000  0.00000000  0.27524728  1
  O  O6  2  0.00000000  0.50000000  0.24495975  1
  O  O7  2  0.50000000  0.00000000  0.24528746  1
  O  O8  2  0.50000000  0.50000000  0.21822018  1
