# generated using pymatgen
data_La2FeNO3
_symmetry_space_group_name_H-M   P2_12_12
_cell_length_a   5.44860031
_cell_length_b   5.45241369
_cell_length_c   12.91775022
_cell_angle_alpha   90.00000000
_cell_angle_beta   90.00000000
_cell_angle_gamma   90.00000000
_symmetry_Int_Tables_number   18
_chemical_formula_structural   La2FeNO3
_chemical_formula_sum   'La8 Fe4 N4 O12'
_cell_volume   383.76081907
_cell_formula_units_Z   4
loop_
 _symmetry_equiv_pos_site_id
 _symmetry_equiv_pos_as_xyz
  1  'x, y, z'
  2  '-x, -y, z'
  3  'x+1/2, -y+1/2, -z'
  4  '-x+1/2, y+1/2, -z'
loop_
 _atom_site_type_symbol
 _atom_site_label
 _atom_site_symmetry_multiplicity
 _atom_site_fract_x
 _atom_site_fract_y
 _atom_site_fract_z
 _atom_site_occupancy
  La  La0  4  0.23964848  0.23938731  0.38997833  1
  La  La1  4  0.24936278  0.75049456  0.89653749  1
  Fe  Fe2  4  0.24634197  0.24624513  0.76612975  1
  N  N3  4  0.23182844  0.23169972  0.91819139  1
  O  O4  4  0.21620905  0.78471334  0.43074149  1
  O  O5  2  0.00000000  0.00000000  0.24516492  1
  O  O6  2  0.00000000  0.00000000  0.72945107  1
  O  O7  2  0.00000000  0.50000000  0.25846632  1
  O  O8  2  0.00000000  0.50000000  0.74182648  1
