# generated using pymatgen
data_La2FeNO3
_symmetry_space_group_name_H-M   Pcc2
_cell_length_a   5.45448535
_cell_length_b   5.45742590
_cell_length_c   12.85547412
_cell_angle_alpha   90.00000000
_cell_angle_beta   90.00000000
_cell_angle_gamma   90.00000000
_symmetry_Int_Tables_number   27
_chemical_formula_structural   La2FeNO3
_chemical_formula_sum   'La8 Fe4 N4 O12'
_cell_volume   382.67467808
_cell_formula_units_Z   4
loop_
 _symmetry_equiv_pos_site_id
 _symmetry_equiv_pos_as_xyz
  1  'x, y, z'
  2  '-x, -y, z'
  3  '-x, y, z+1/2'
  4  'x, -y, z+1/2'
loop_
 _atom_site_type_symbol
 _atom_site_label
 _atom_site_symmetry_multiplicity
 _atom_site_fract_x
 _atom_site_fract_y
 _atom_site_fract_z
 _atom_site_occupancy
  La  La0  4  0.24831774  0.24822794  0.40044755  1
  La  La1  4  0.25876159  0.25922039  0.11432119  1
  Fe  Fe2  4  0.24693990  0.24674476  0.77160641  1
  N  N3  4  0.23120803  0.22979673  0.92529532  1
  O  O4  4  0.27934915  0.28123171  0.57893966  1
  O  O5  2  0.00000000  0.00000000  0.23611006  1
  O  O6  2  0.00000000  0.50000000  0.24867200  1
  O  O7  2  0.50000000  0.00000000  0.24780010  1
  O  O8  2  0.50000000  0.50000000  0.26079698  1