# generated using pymatgen
data_Lu2AlNO3
_symmetry_space_group_name_H-M   Pca2_1
_cell_length_a   5.09630282
_cell_length_b   5.07917707
_cell_length_c   11.77230396
_cell_angle_alpha   90.00000000
_cell_angle_beta   90.00000000
_cell_angle_gamma   90.00000000
_symmetry_Int_Tables_number   29
_chemical_formula_structural   Lu2AlNO3
_chemical_formula_sum   'Lu8 Al4 N4 O12'
_cell_volume   304.72637495
_cell_formula_units_Z   4
loop_
 _symmetry_equiv_pos_site_id
 _symmetry_equiv_pos_as_xyz
  1  'x, y, z'
  2  '-x, -y, z+1/2'
  3  '-x+1/2, y, z+1/2'
  4  'x+1/2, -y, z'
loop_
 _atom_site_type_symbol
 _atom_site_label
 _atom_site_symmetry_multiplicity
 _atom_site_fract_x
 _atom_site_fract_y
 _atom_site_fract_z
 _atom_site_occupancy
  Lu  Lu0  4  0.03188974  0.74288594  0.65756244  1
  Lu  Lu1  4  0.04233709  0.24165122  0.85945138  1
  Al  Al2  4  0.00029889  0.25219241  0.51347799  1
  N  N3  4  0.01547855  0.69785747  0.17877776  1
  O  O4  4  0.01930546  0.18503529  0.33769371  1
  O  O5  4  0.19981471  0.04941491  0.02137243  1
  O  O6  4  0.20550619  0.54592577  0.47966957  1
