# generated using pymatgen
data_Lu2GaNO3
_symmetry_space_group_name_H-M   Pca2_1
_cell_length_a   5.46402650
_cell_length_b   5.25907730
_cell_length_c   11.47602470
_cell_angle_alpha   90.00000000
_cell_angle_beta   90.00000000
_cell_angle_gamma   90.00000000
_symmetry_Int_Tables_number   29
_chemical_formula_structural   Lu2GaNO3
_chemical_formula_sum   'Lu8 Ga4 N4 O12'
_cell_volume   329.77203573
_cell_formula_units_Z   4
loop_
 _symmetry_equiv_pos_site_id
 _symmetry_equiv_pos_as_xyz
  1  'x, y, z'
  2  '-x, -y, z+1/2'
  3  '-x+1/2, y, z+1/2'
  4  'x+1/2, -y, z'
loop_
 _atom_site_type_symbol
 _atom_site_label
 _atom_site_symmetry_multiplicity
 _atom_site_fract_x
 _atom_site_fract_y
 _atom_site_fract_z
 _atom_site_occupancy
  Lu  Lu0  4  0.06303814  0.24087457  0.65988292  1
  Lu  Lu1  4  0.07048940  0.74423531  0.85850097  1
  Ga  Ga2  4  0.00339658  0.75647094  0.51698550  1
  N  N3  4  0.03512909  0.16098417  0.18169740  1
  O  O4  4  0.03838917  0.64978731  0.33303935  1
  O  O5  4  0.18423052  0.56288886  0.03438462  1
  O  O6  4  0.20015506  0.05515475  0.46350611  1
