# generated using pymatgen
data_Sm2AlNO3
_symmetry_space_group_name_H-M   I4mm
_cell_length_a   3.65931578
_cell_length_b   3.65931578
_cell_length_c   12.28625197
_cell_angle_alpha   90.00000000
_cell_angle_beta   90.00000000
_cell_angle_gamma   90.00000000
_symmetry_Int_Tables_number   107
_chemical_formula_structural   Sm2AlNO3
_chemical_formula_sum   'Sm4 Al2 N2 O6'
_cell_volume   164.52018666
_cell_formula_units_Z   2
loop_
 _symmetry_equiv_pos_site_id
 _symmetry_equiv_pos_as_xyz
  1  'x, y, z'
  2  '-y, x, z'
  3  '-x, -y, z'
  4  'y, -x, z'
  5  '-x, y, z'
  6  'y, x, z'
  7  'x, -y, z'
  8  '-y, -x, z'
  9  'x+1/2, y+1/2, z+1/2'
  10  '-y+1/2, x+1/2, z+1/2'
  11  '-x+1/2, -y+1/2, z+1/2'
  12  'y+1/2, -x+1/2, z+1/2'
  13  '-x+1/2, y+1/2, z+1/2'
  14  'y+1/2, x+1/2, z+1/2'
  15  'x+1/2, -y+1/2, z+1/2'
  16  '-y+1/2, -x+1/2, z+1/2'
loop_
 _atom_site_type_symbol
 _atom_site_label
 _atom_site_symmetry_multiplicity
 _atom_site_fract_x
 _atom_site_fract_y
 _atom_site_fract_z
 _atom_site_occupancy
  Sm  Sm0  2  0.00000000  0.00000000  0.34896488  1
  Sm  Sm1  2  0.00000000  0.00000000  0.63784448  1
  Al  Al2  2  0.00000000  0.00000000  0.98759892  1
  N  N3  2  0.00000000  0.00000000  0.82533352  1
  O  O4  4  0.00000000  0.50000000  0.00075743  1
  O  O5  2  0.00000000  0.00000000  0.16144336  1
