# generated using pymatgen
data_Tb2AlNO3
_symmetry_space_group_name_H-M   P4_2cm
_cell_length_a   5.13995012
_cell_length_b   5.13995012
_cell_length_c   12.01285834
_cell_angle_alpha   90.00000000
_cell_angle_beta   90.00000000
_cell_angle_gamma   90.00000000
_symmetry_Int_Tables_number   101
_chemical_formula_structural   Tb2AlNO3
_chemical_formula_sum   'Tb8 Al4 N4 O12'
_cell_volume   317.36875209
_cell_formula_units_Z   4
loop_
 _symmetry_equiv_pos_site_id
 _symmetry_equiv_pos_as_xyz
  1  'x, y, z'
  2  '-y, x, z+1/2'
  3  '-x, -y, z'
  4  'y, -x, z+1/2'
  5  '-x, y, z+1/2'
  6  'y, x, z'
  7  'x, -y, z+1/2'
  8  '-y, -x, z'
loop_
 _atom_site_type_symbol
 _atom_site_label
 _atom_site_symmetry_multiplicity
 _atom_site_fract_x
 _atom_site_fract_y
 _atom_site_fract_z
 _atom_site_occupancy
  Tb  Tb0  4  0.24556611  0.24556611  0.40286051  1
  Tb  Tb1  4  0.25937176  0.25937176  0.11214408  1
  Al  Al2  4  0.24842515  0.24842515  0.76257942  1
  N  N3  4  0.22781562  0.22781562  0.92647178  1
  O  O4  4  0.00000000  0.50000000  0.24812163  1
  O  O5  4  0.28034094  0.28034094  0.58651997  1
  O  O6  2  0.00000000  0.00000000  0.23272972  1
  O  O7  2  0.50000000  0.50000000  0.26452678  1
