# generated using pymatgen
data_Tb2FeNO3
_symmetry_space_group_name_H-M   Pca2_1
_cell_length_a   5.35034348
_cell_length_b   12.26111732
_cell_length_c   5.34015509
_cell_angle_alpha   90.00000000
_cell_angle_beta   90.00000000
_cell_angle_gamma   90.00000000
_symmetry_Int_Tables_number   29
_chemical_formula_structural   Tb2FeNO3
_chemical_formula_sum   'Tb8 Fe4 N4 O12'
_cell_volume   350.32052429
_cell_formula_units_Z   4
loop_
 _symmetry_equiv_pos_site_id
 _symmetry_equiv_pos_as_xyz
  1  'x, y, z'
  2  '-x, -y, z+1/2'
  3  '-x+1/2, y, z+1/2'
  4  'x+1/2, -y, z'
loop_
 _atom_site_type_symbol
 _atom_site_label
 _atom_site_symmetry_multiplicity
 _atom_site_fract_x
 _atom_site_fract_y
 _atom_site_fract_z
 _atom_site_occupancy
  Tb  Tb0  4  0.00427826  0.90095768  0.02836908  1
  Tb  Tb1  4  0.01345195  0.39449828  0.44970803  1
  Fe  Fe2  4  0.00878353  0.76319994  0.49801590  1
  N  N3  4  0.06306683  0.91969111  0.47835170  1
  O  O4  4  0.08695666  0.43376206  0.03628851  1
  O  O5  4  0.20324370  0.23458114  0.29727615  1
  O  O6  4  0.20809389  0.71438085  0.20758997  1
