# generated using pymatgen
data_Tm2AlNO3
_symmetry_space_group_name_H-M   Pca2_1
_cell_length_a   5.06235822
_cell_length_b   5.09248745
_cell_length_c   11.94564922
_cell_angle_alpha   90.00000000
_cell_angle_beta   90.00000000
_cell_angle_gamma   90.00000000
_symmetry_Int_Tables_number   29
_chemical_formula_structural   Tm2AlNO3
_chemical_formula_sum   'Tm8 Al4 N4 O12'
_cell_volume   307.95878611
_cell_formula_units_Z   4
loop_
 _symmetry_equiv_pos_site_id
 _symmetry_equiv_pos_as_xyz
  1  'x, y, z'
  2  '-x, -y, z+1/2'
  3  '-x+1/2, y, z+1/2'
  4  'x+1/2, -y, z'
loop_
 _atom_site_type_symbol
 _atom_site_label
 _atom_site_symmetry_multiplicity
 _atom_site_fract_x
 _atom_site_fract_y
 _atom_site_fract_z
 _atom_site_occupancy
  Tm  Tm0  4  0.02054052  0.25601589  0.15648975  1
  Tm  Tm1  4  0.02910941  0.75968361  0.36029310  1
  Al  Al2  4  0.00037783  0.74765208  0.01415549  1
  N  N3  4  0.00803032  0.29151864  0.67811594  1
  O  O4  4  0.01295358  0.80363169  0.83777380  1
  O  O5  4  0.20612781  0.95725737  0.51699512  1
  O  O6  4  0.21023464  0.45935367  0.98417152  1
